LTspice 24.1.5 for Windows
Circuit: C:\Users\manue\Desktop\Yo\Universidad\4to Semestre\Herramientas de Dise침o\Pr치cticas\Proyecto\KiCAD\DIMECRES_4_NETEJAPARABRISES\LTSpice\Regulador\Regulador.net
Start Time: Mon Apr 28 12:14:58 2025
solver = Normal
Maximum thread count: 16
tnom = 27
temp = 27
method = modified trap
Direct Newton iteration failed to find .op point.  (Use ".option noopiter" to skip.)
Starting Gmin stepping
Gmin = 10
Gmin = 1.07374
Gmin = 0.115292
vernier = 0.5
vernier = 0.25
vernier = 0.333333
Gmin = 0.0785946
vernier = 0.444444
Gmin = 0.0311025
vernier = 0.592592
vernier = 0.790123
Gmin = 0.00711525
vernier = 1
Gmin = 0.000868881
Gmin = 9.32954e-05
Gmin = 1.00175e-05
Gmin = 1.07562e-06
Gmin = 1.15494e-07
Gmin = 1.24011e-08
Gmin = 1.33156e-09
Gmin = 1.42975e-10
Gmin = 1.53518e-11
Gmin = 1.64839e-12
Gmin = 1.76994e-13
Gmin = 0
Gmin stepping succeeded in finding the operating point.

Total elapsed time: 0.765 seconds.

Files loaded:
C:\Users\manue\Desktop\Yo\Universidad\4to Semestre\Herramientas de Dise침o\Pr치cticas\Proyecto\KiCAD\DIMECRES_4_NETEJAPARABRISES\LTSpice\Regulador\Regulador.net
C:\Users\manue\AppData\Local\LTspice\lib\cmp\standard.dio
C:\Users\manue\AppData\Local\LTspice\lib\sub\LT1117.lib

