LTspice 24.1.5 for Windows
Circuit: C:\Users\manue\Desktop\Yo\Universidad\4to Semestre\Herramientas de Dise침o\Pr치cticas\Proyecto\KiCAD\DIMECRES_4_NETEJAPARABRISES\LTSpice\Comparador\Draft1.net
Start Time: Thu Apr  3 12:31:27 2025
solver = Normal
Maximum thread count: 16
tnom = 27
temp = 27
method = modified trap
Direct Newton iteration for .op point succeeded.
Total elapsed time: 0.149 seconds.

Files loaded:
C:\Users\manue\Desktop\Yo\Universidad\4to Semestre\Herramientas de Dise침o\Pr치cticas\Proyecto\KiCAD\DIMECRES_4_NETEJAPARABRISES\LTSpice\Comparador\Draft1.net
C:\Users\manue\AppData\Local\LTspice\lib\cmp\standard.dio

